Circuit: * C:\Users\ewang\Documents\GitHub\circuits-tone-generator\CSIsymboltest.asc

Direct Newton iteration for .op point succeeded.
Ignoring empty pin current: Ix(u1:drain)
Ignoring empty pin current: Ix(u1:gate)
Ignoring empty pin current: Ix(u1:source)
Ignoring empty pin current: Ix(u2:drain)
Ignoring empty pin current: Ix(u2:gate)
Ignoring empty pin current: Ix(u2:source)
Ignoring empty pin current: Ix(u3:drain)
Ignoring empty pin current: Ix(u3:gate)
Ignoring empty pin current: Ix(u3:source)
Ignoring empty pin current: Ix(u4:drain)
Ignoring empty pin current: Ix(u4:gate)
Ignoring empty pin current: Ix(u4:source)
Ignoring empty pin current: Ix(u5:drain)
Ignoring empty pin current: Ix(u5:gate)
Ignoring empty pin current: Ix(u5:source)
Ignoring empty pin current: Ix(u6:drain)
Ignoring empty pin current: Ix(u6:gate)
Ignoring empty pin current: Ix(u6:source)
Ignoring empty pin current: Ix(x1:vin)
Ignoring empty pin current: Ix(x1:vb)
Ignoring empty pin current: Ix(x1:vdd)
Ignoring empty pin current: Ix(x1:vout)
Ignoring empty pin current: Ix(x1:gnd)
Ignoring empty pin current: Ix(u1:drain)
Ignoring empty pin current: Ix(u1:gate)
Ignoring empty pin current: Ix(u1:source)
Ignoring empty pin current: Ix(u2:drain)
Ignoring empty pin current: Ix(u2:gate)
Ignoring empty pin current: Ix(u2:source)
Ignoring empty pin current: Ix(u3:drain)
Ignoring empty pin current: Ix(u3:gate)
Ignoring empty pin current: Ix(u3:source)
Ignoring empty pin current: Ix(u4:drain)
Ignoring empty pin current: Ix(u4:gate)
Ignoring empty pin current: Ix(u4:source)
Ignoring empty pin current: Ix(u5:drain)
Ignoring empty pin current: Ix(u5:gate)
Ignoring empty pin current: Ix(u5:source)
Ignoring empty pin current: Ix(u6:drain)
Ignoring empty pin current: Ix(u6:gate)
Ignoring empty pin current: Ix(u6:source)
Ignoring empty pin current: Ix(x1:vin)
Ignoring empty pin current: Ix(x1:vb)
Ignoring empty pin current: Ix(x1:vdd)
Ignoring empty pin current: Ix(x1:vout)
Ignoring empty pin current: Ix(x1:gnd)

Date: Tue Apr 29 10:16:28 2014
Total elapsed time: 0.086 seconds.

tnom = 27
temp = 27
method = modified trap
totiter = 6164
traniter = 6139
tranpoints = 1453
accept = 1303
rejected = 150
matrix size = 14
fillins = 0
solver = Normal
Matrix Compiler1: 600 bytes object code size  0.2/0.1/[0.0]
Matrix Compiler2: off  [0.1]/0.2/0.4


