Circuit: * C:\Users\fschneider\Dropbox\github\circuits-tone-generator\CurrentStarvedInverter.asc

Fatal Error: Current: Missing capacitance value.
