Circuit: * C:\Users\fschneider\Dropbox\GitHub\circuits-tone-generator\CurrentStarvedInverter.asc

Fatal Error: Current: Missing capacitance value.
