Circuit: * C:\Users\fschneider\Dropbox\GitHub\circuits-tone-generator\RingOscillator.asc

Direct Newton iteration for .op point succeeded.
Ignoring empty pin current: Ix(u1:drain)
Ignoring empty pin current: Ix(u1:gate)
Ignoring empty pin current: Ix(u1:source)
Ignoring empty pin current: Ix(u2:drain)
Ignoring empty pin current: Ix(u2:gate)
Ignoring empty pin current: Ix(u2:source)
Ignoring empty pin current: Ix(u3:drain)
Ignoring empty pin current: Ix(u3:gate)
Ignoring empty pin current: Ix(u3:source)
Ignoring empty pin current: Ix(u4:drain)
Ignoring empty pin current: Ix(u4:gate)
Ignoring empty pin current: Ix(u4:source)
Ignoring empty pin current: Ix(u5:drain)
Ignoring empty pin current: Ix(u5:gate)
Ignoring empty pin current: Ix(u5:source)
Ignoring empty pin current: Ix(u6:drain)
Ignoring empty pin current: Ix(u6:gate)
Ignoring empty pin current: Ix(u6:source)
Ignoring empty pin current: Ix(x1:vin)
Ignoring empty pin current: Ix(x1:vb)
Ignoring empty pin current: Ix(x1:vdd)
Ignoring empty pin current: Ix(x1:vout)
Ignoring empty pin current: Ix(x1:gnd)
Ignoring empty pin current: Ix(x2:vin)
Ignoring empty pin current: Ix(x2:vb)
Ignoring empty pin current: Ix(x2:vdd)
Ignoring empty pin current: Ix(x2:vout)
Ignoring empty pin current: Ix(x2:gnd)
Ignoring empty pin current: Ix(x3:vin)
Ignoring empty pin current: Ix(x3:vb)
Ignoring empty pin current: Ix(x3:vdd)
Ignoring empty pin current: Ix(x3:vout)
Ignoring empty pin current: Ix(x3:gnd)
Ignoring empty pin current: Ix(u1:drain)
Ignoring empty pin current: Ix(u1:gate)
Ignoring empty pin current: Ix(u1:source)
Ignoring empty pin current: Ix(u2:drain)
Ignoring empty pin current: Ix(u2:gate)
Ignoring empty pin current: Ix(u2:source)
Ignoring empty pin current: Ix(u3:drain)
Ignoring empty pin current: Ix(u3:gate)
Ignoring empty pin current: Ix(u3:source)
Ignoring empty pin current: Ix(u4:drain)
Ignoring empty pin current: Ix(u4:gate)
Ignoring empty pin current: Ix(u4:source)
Ignoring empty pin current: Ix(u5:drain)
Ignoring empty pin current: Ix(u5:gate)
Ignoring empty pin current: Ix(u5:source)
Ignoring empty pin current: Ix(u6:drain)
Ignoring empty pin current: Ix(u6:gate)
Ignoring empty pin current: Ix(u6:source)
Ignoring empty pin current: Ix(x1:vin)
Ignoring empty pin current: Ix(x1:vb)
Ignoring empty pin current: Ix(x1:vdd)
Ignoring empty pin current: Ix(x1:vout)
Ignoring empty pin current: Ix(x1:gnd)
Ignoring empty pin current: Ix(x2:vin)
Ignoring empty pin current: Ix(x2:vb)
Ignoring empty pin current: Ix(x2:vdd)
Ignoring empty pin current: Ix(x2:vout)
Ignoring empty pin current: Ix(x2:gnd)
Ignoring empty pin current: Ix(x3:vin)
Ignoring empty pin current: Ix(x3:vb)
Ignoring empty pin current: Ix(x3:vdd)
Ignoring empty pin current: Ix(x3:vout)
Ignoring empty pin current: Ix(x3:gnd)
.step bias=0.2
.step bias=0.3
.step bias=0.4
.step bias=0.5

Date: Tue Apr 29 10:11:37 2014
Total elapsed time: 3.946 seconds.

tnom = 27
temp = 27
method = modified trap
totiter = 27575
traniter = 27550
tranpoints = 5517
accept = 4993
rejected = 524
matrix size = 24
fillins = 0
solver = Normal
Matrix Compiler1: 1.79 KB object code size  0.6/0.3/[0.1]
Matrix Compiler2: off  [0.3]/0.4/0.7


