Circuit: * C:\Users\ewang\Documents\GitHub\circuits-tone-generator\symboltest.asc

Fatal Error: C:x1:urrent: Missing capacitance value.
